<?xml version="1.0" encoding="UTF-8"?>

<!-- generated on 2025-09-28 16:30:10 by Eclipse SUMO netconvert Version 1.24.0
<netconvertConfiguration xmlns:xsi="http://www.w3.org/2001/XMLSchema-instance" xsi:noNamespaceSchemaLocation="http://sumo.dlr.de/xsd/netconvertConfiguration.xsd">

    <input>
        <osm-files value="/mnt/c/Users/shahn/Downloads/map.osm"/>
    </input>

    <output>
        <opendrive-output value="/mnt/c/Users/shahn/Downloads/map.xodr"/>
    </output>

    <projection>
        <proj.utm value="true"/>
    </projection>

</netconvertConfiguration>
-->

<OpenDRIVE>
    <header revMajor="1" revMinor="4" name="" version="1.00" date="Sun Sep 28 16:30:10 2025" north="507.45" south="0.00" east="1377.57" west="0.00">
        <geoReference>
 <![CDATA[
 +proj=utm +zone=32 +ellps=WGS84 +datum=WGS84 +units=m +no_defs
]]>
        </geoReference>
        <offset x="693939.84" y="5347460.65" z="-0.00" hdg="0"/>
    </header>
    <road name="" length="75.34111296" id="220" junction="-1">
        <link>
            <predecessor elementType="junction" elementId="1"/>
            <successor elementType="junction" elementId="2"/>
        </link>
        <type s="0" type="town"/>
        <planView>
            <geometry s="0.00000000" x="617.37018155" y="255.57054135" hdg="1.29742022" length="75.34111296">
                <line/>
            </geometry>
        </planView>
        <elevationProfile>
            <elevation s="0" a="0.00" b="0" c="0" d="0"/>
        </elevationProfile>
        <lateralProfile/>
        <lanes>
            <laneSection s="0">
                <center>
                    <lane id="0" type="none" level="true">
                        <link/>
                        <roadMark sOffset="0" type="solid" weight="standard" color="standard" width="0.13"/>
                    </lane>
                </center>
                <right>
                    <lane id="-1" type="restricted" level="true">
                        <link/>
                        <width sOffset="0" a="3.20" b="0" c="0" d="0"/>
                        <roadMark sOffset="0" type="solid" weight="standard" color="standard" width="0.13"/>
                        <speed sOffset="0" max="5.56"/>
                    </lane>
                 </right>
            </laneSection>
        </lanes>
        <objects/>
        <signals/>
    </road>
    <road name="" length="1.00609154" id="221" junction="-1">
        <link>
            <predecessor elementType="junction" elementId="3"/>
            <successor elementType="junction" elementId="1"/>
        </link>
        <type s="0" type="town"/>
        <planView>
            <geometry s="0.00000000" x="615.81821809" y="249.82328343" hdg="1.31393698" length="1.00609154">
                <line/>
            </geometry>
        </planView>
        <elevationProfile>
            <elevation s="0" a="0.00" b="0" c="0" d="0"/>
        </elevationProfile>
        <lateralProfile/>
        <lanes>
            <laneSection s="0">
                <center>
                    <lane id="0" type="none" level="true">
                        <link/>
                        <roadMark sOffset="0" type="solid" weight="standard" color="standard" width="0.13"/>
                    </lane>
                </center>
                <right>
                    <lane id="-1" type="restricted" level="true">
                        <link/>
                        <width sOffset="0" a="3.20" b="0" c="0" d="0"/>
                        <roadMark sOffset="0" type="solid" weight="standard" color="standard" width="0.13"/>
                        <speed sOffset="0" max="5.56"/>
                    </lane>
                 </right>
            </laneSection>
        </lanes>
        <objects/>
        <signals/>
    </road>
    <road name="" length="19.17283404" id="222" junction="-1">
        <link>
            <predecessor elementType="junction" elementId="4"/>
            <successor elementType="junction" elementId="5"/>
        </link>
        <type s="0" type="town"/>
        <planView>
            <geometry s="0.00000000" x="635.44517124" y="236.17528098" hdg="-1.82757684" length="0.20000000">
                <line/>
            </geometry>
            <geometry s="0.20000000" x="635.39437765" y="235.98183845" hdg="-1.82757684" length="4.06738469">
                <paramPoly3 aU="-0.00000000" bU="3.05053838" cU="3.05053621" dU="-2.03369164" aV="0.00000000" bV="-0.00000000" cV="-0.00675607" dV="0.00320526" pRange="normalized"/>
            </geometry>
            <geometry s="4.26738469" x="634.35795836" y="232.04871606" hdg="-1.82885411" length="14.90544935">
                <line/>
            </geometry>
        </planView>
        <elevationProfile>
            <elevation s="0" a="0.00" b="0" c="0" d="0"/>
        </elevationProfile>
        <lateralProfile/>
        <lanes>
            <laneSection s="0">
                <center>
                    <lane id="0" type="none" level="true">
                        <link/>
                        <roadMark sOffset="0" type="solid" weight="standard" color="standard" width="0.13"/>
                    </lane>
                </center>
                <right>
                    <lane id="-1" type="restricted" level="true">
                        <link/>
                        <width sOffset="0" a="3.20" b="0" c="0" d="0"/>
                        <roadMark sOffset="0" type="solid" weight="standard" color="standard" width="0.13"/>
                        <speed sOffset="0" max="5.56"/>
                    </lane>
                 </right>
            </laneSection>
        </lanes>
        <objects/>
        <signals/>
    </road>
    <road name="Zeppelinstraße" length="198.59327919" id="223" junction="-1">
        <link>
            <predecessor elementType="junction" elementId="6"/>
            <successor elementType="junction" elementId="7"/>
        </link>
        <type s="0" type="town"/>
        <planView>
            <geometry s="0.00000000" x="560.09104721" y="255.08980002" hdg="3.01422416" length="52.95384728">
                <line/>
            </geometry>
            <geometry s="52.95384728" x="507.56614761" y="261.81623028" hdg="3.01422416" length="7.83247709">
                <paramPoly3 aU="0.00000000" bU="5.87431641" cU="5.87484378" dU="-3.91673882" aV="-0.00000000" bV="0.00000000" cV="-0.07036976" dV="0.07318843" pRange="normalized"/>
            </geometry>
            <geometry s="60.78632437" x="499.79681399" y="262.80834300" hdg="3.02764328" length="62.63044314">
                <line/>
            </geometry>
            <geometry s="123.41676751" x="437.57254229" y="269.92960827" hdg="3.02764328" length="13.88888883">
                <paramPoly3 aU="0.00000000" bU="10.41666661" cU="10.41666661" dU="-6.94444448" aV="-0.00000000" bV="-0.00000000" cV="-0.00220004" dV="0.00073335" pRange="normalized"/>
            </geometry>
            <geometry s="137.30565634" x="423.77389265" y="271.51027288" hdg="3.02743208" length="36.84829485">
                <line/>
            </geometry>
            <geometry s="174.15395119" x="387.16545236" y="275.70776412" hdg="3.02743208" length="13.88888880">
                <paramPoly3 aU="0.00000000" bU="10.41666658" cU="10.41666658" dU="-6.94444450" aV="-0.00000000" bV="0.00000000" cV="0.00264689" dV="-0.00088230" pRange="normalized"/>
            </geometry>
            <geometry s="188.04283999" x="373.36676886" y="277.28813275" hdg="3.02768618" length="10.55043920">
                <line/>
            </geometry>
        </planView>
        <elevationProfile>
            <elevation s="0" a="0.00" b="0" c="0" d="0"/>
        </elevationProfile>
        <lateralProfile/>
        <lanes>
            <laneSection s="0">
                <center>
                    <lane id="0" type="none" level="true">
                        <link/>
                        <roadMark sOffset="0" type="solid" weight="standard" color="standard" width="0.13"/>
                    </lane>
                </center>
                <right>
                    <lane id="-1" type="driving" level="true">
                        <link/>
                        <width sOffset="0" a="3.20" b="0" c="0" d="0"/>
                        <roadMark sOffset="0" type="solid" weight="standard" color="standard" width="0.13"/>
                        <speed sOffset="0" max="13.89"/>
                    </lane>
                 </right>
            </laneSection>
        </lanes>
        <objects/>
        <signals/>
    </road>
    <road name="Lilienthalstraße" length="245.24027184" id="224" junction="-1">
        <link>
            <predecessor elementType="junction" elementId="8"/>
            <successor elementType="junction" elementId="9"/>
        </link>
        <type s="0" type="town"/>
        <planView>
            <geometry s="0.00000000" x="509.98169000" y="1.65591300" hdg="1.34603385" length="33.79751545">
                <line/>
            </geometry>
            <geometry s="33.79751545" x="517.51430501" y="34.60332203" hdg="1.34603385" length="13.55142249">
                <paramPoly3 aU="0.00000000" bU="10.16325255" cU="10.16710404" dU="-6.77935321" aV="0.00000000" bV="0.00000000" cV="0.28223794" dV="-0.28141691" pRange="normalized"/>
            </geometry>
            <geometry s="47.34893795" x="520.53368200" y="47.81366100" hdg="1.31850229" length="35.75124859">
                <line/>
            </geometry>
            <geometry s="83.10018653" x="529.45812400" y="82.43310800" hdg="1.31850229" length="12.15622181">
                <paramPoly3 aU="0.00000000" bU="9.11692968" cU="9.11144155" dU="-6.07434997" aV="0.00000000" bV="0.00000000" cV="-0.69734496" dV="0.48328016" pRange="normalized"/>
            </geometry>
            <geometry s="95.25640834" x="532.69937200" y="94.14892500" hdg="1.32455158" length="70.64650458">
                <line/>
            </geometry>
            <geometry s="165.90291292" x="549.92042642" y="162.66435314" hdg="1.32455158" length="13.88855923">
                <paramPoly3 aU="0.00000000" bU="10.41638570" cU="10.41586504" dU="-6.94411108" aV="0.00000000" bV="-0.00000000" cV="-0.19392569" dV="0.09191871" pRange="normalized"/>
            </geometry>
            <geometry s="179.79147214" x="553.40478085" y="176.10868663" hdg="1.31378993" length="12.08175835">
                <paramPoly3 aU="0.00000000" bU="9.06122573" cU="9.06245819" dU="-6.04214281" aV="0.00000000" bV="-0.00000000" cV="0.02316361" dV="-0.07061883" pRange="normalized"/>
            </geometry>
            <geometry s="191.87323049" x="556.52164100" y="187.78135000" hdg="1.29552105" length="13.45927074">
                <paramPoly3 aU="0.00000000" bU="10.09422138" cU="10.09148514" dU="-6.72785989" aV="0.00000000" bV="0.00000000" cV="-0.63068568" dV="0.45742897" pRange="normalized"/>
            </geometry>
            <geometry s="205.33250124" x="560.34637700" y="200.68542100" hdg="1.30650930" length="39.90777060">
                <line/>
            </geometry>
        </planView>
        <elevationProfile>
            <elevation s="0" a="0.00" b="0" c="0" d="0"/>
        </elevationProfile>
        <lateralProfile/>
        <lanes>
            <laneSection s="0">
                <center>
                    <lane id="0" type="none" level="true">
                        <link/>
                        <roadMark sOffset="0" type="solid" weight="standard" color="standard" width="0.13"/>
                    </lane>
                </center>
                <right>
                    <lane id="-1" type="driving" level="true">
                        <link/>
                        <width sOffset="0" a="3.20" b="0" c="0" d="0"/>
                        <roadMark sOffset="0" type="solid" weight="standard" color="standard" width="0.13"/>
                        <speed sOffset="0" max="13.89"/>
                    </lane>
                 </right>
            </laneSection>
        </lanes>
        <objects/>
        <signals/>
    </road>
    <road name="Zeppelinstraße" length="20.74027841" id="225" junction="-1">
        <link>
            <predecessor elementType="junction" elementId="3"/>
            <successor elementType="junction" elementId="10"/>
        </link>
        <type s="0" type="town"/>
        <planView>
            <geometry s="0.00000000" x="610.11665973" y="246.10057750" hdg="2.92536282" length="0.20000000">
                <line/>
            </geometry>
            <geometry s="0.20000000" x="609.92131708" y="246.14348726" hdg="2.92536282" length="8.68036639">
                <paramPoly3 aU="0.00000000" bU="6.51027373" cU="6.51024726" dU="-4.34017050" aV="-0.00000000" bV="0.00000000" cV="-0.03270303" dV="0.01684718" pRange="normalized"/>
            </geometry>
            <geometry s="8.88036639" x="601.44650538" y="248.02133251" hdg="2.92307958" length="11.85991202">
                <line/>
            </geometry>
        </planView>
        <elevationProfile>
            <elevation s="0" a="0.00" b="0" c="0" d="0"/>
        </elevationProfile>
        <lateralProfile/>
        <lanes>
            <laneSection s="0">
                <center>
                    <lane id="0" type="none" level="true">
                        <link/>
                        <roadMark sOffset="0" type="solid" weight="standard" color="standard" width="0.13"/>
                    </lane>
                </center>
                <right>
                    <lane id="-1" type="driving" level="true">
                        <link/>
                        <width sOffset="0" a="3.20" b="0" c="0" d="0"/>
                        <roadMark sOffset="0" type="solid" weight="standard" color="standard" width="0.13"/>
                        <speed sOffset="0" max="13.89"/>
                    </lane>
                 </right>
            </laneSection>
        </lanes>
        <objects/>
        <signals/>
    </road>
    <road name="Zeppelinstraße" length="0.15501822" id="226" junction="-1">
        <link>
            <predecessor elementType="junction" elementId="11"/>
            <successor elementType="junction" elementId="3"/>
        </link>
        <type s="0" type="town"/>
        <planView>
            <geometry s="0.00000000" x="619.49378368" y="244.08761115" hdg="2.93447987" length="0.15501822">
                <line/>
            </geometry>
        </planView>
        <elevationProfile>
            <elevation s="0" a="0.00" b="0" c="0" d="0"/>
        </elevationProfile>
        <lateralProfile/>
        <lanes>
            <laneSection s="0">
                <center>
                    <lane id="0" type="none" level="true">
                        <link/>
                        <roadMark sOffset="0" type="solid" weight="standard" color="standard" width="0.13"/>
                    </lane>
                </center>
                <right>
                    <lane id="-1" type="driving" level="true">
                        <link/>
                        <width sOffset="0" a="3.20" b="0" c="0" d="0"/>
                        <roadMark sOffset="0" type="solid" weight="standard" color="standard" width="0.13"/>
                        <speed sOffset="0" max="13.89"/>
                    </lane>
                 </right>
            </laneSection>
        </lanes>
        <objects/>
        <signals/>
    </road>
    <road name="Zeppelinstraße" length="0.20000000" id="227" junction="-1">
        <link>
            <predecessor elementType="junction" elementId="4"/>
            <successor elementType="junction" elementId="11"/>
        </link>
        <type s="0" type="town"/>
        <planView>
            <geometry s="0.00000000" x="626.84762912" y="242.54222568" hdg="2.93442595" length="0.20000000">
                <line/>
            </geometry>
        </planView>
        <elevationProfile>
            <elevation s="0" a="0.00" b="0" c="0" d="0"/>
        </elevationProfile>
        <lateralProfile/>
        <lanes>
            <laneSection s="0">
                <center>
                    <lane id="0" type="none" level="true">
                        <link/>
                        <roadMark sOffset="0" type="solid" weight="standard" color="standard" width="0.13"/>
                    </lane>
                </center>
                <right>
                    <lane id="-1" type="driving" level="true">
                        <link/>
                        <width sOffset="0" a="3.20" b="0" c="0" d="0"/>
                        <roadMark sOffset="0" type="solid" weight="standard" color="standard" width="0.13"/>
                        <speed sOffset="0" max="13.89"/>
                    </lane>
                 </right>
            </laneSection>
        </lanes>
        <objects/>
        <signals/>
    </road>
    <road name="Zeppelinstraße" length="718.63826643" id="228" junction="-1">
        <link>
            <predecessor elementType="junction" elementId="12"/>
            <successor elementType="junction" elementId="4"/>
        </link>
        <type s="0" type="town"/>
        <planView>
            <geometry s="0.00000000" x="1348.06725371" y="111.49908607" hdg="2.95080780" length="41.22308849">
                <line/>
            </geometry>
            <geometry s="41.22308849" x="1307.59212903" y="119.31620240" hdg="2.95080780" length="13.88888426">
                <paramPoly3 aU="0.00000000" bU="10.41666228" cU="10.41666228" dU="-6.94444737" aV="-0.00000000" bV="-0.00000000" cV="0.01912160" dV="-0.00637387" pRange="normalized"/>
            </geometry>
            <geometry s="55.11197275" x="1293.95283836" y="121.93742771" hdg="2.95264348" length="35.79555809">
                <line/>
            </geometry>
            <geometry s="90.90753084" x="1258.79436425" y="128.66079567" hdg="2.95264348" length="13.88866654">
                <paramPoly3 aU="0.00000000" bU="10.41645612" cU="10.41645611" dU="-6.94458479" aV="-0.00000000" bV="-0.00000000" cV="0.13245862" dV="-0.04415466" pRange="normalized"/>
            </geometry>
            <geometry s="104.79619737" x="1245.13663332" y="131.18266453" hdg="2.96535959" length="48.17170419">
                <line/>
            </geometry>
            <geometry s="152.96790157" x="1197.71105566" y="139.62823547" hdg="2.96535959" length="13.88882795">
                <paramPoly3 aU="0.00000000" bU="10.41660896" cU="10.41660896" dU="-6.94448291" aV="-0.00000000" bV="0.00000000" cV="-0.06934338" dV="0.02311471" pRange="normalized"/>
            </geometry>
            <geometry s="166.85672952" x="1184.04554674" y="142.10875219" hdg="2.95870261" length="37.11189896">
                <line/>
            </geometry>
            <geometry s="203.96862848" x="1147.55259327" y="148.85837381" hdg="2.95870261" length="13.88888884">
                <paramPoly3 aU="0.00000000" bU="10.41666662" cU="10.41666662" dU="-6.94444448" aV="-0.00000000" bV="0.00000000" cV="0.00205615" dV="-0.00068538" pRange="normalized"/>
            </geometry>
            <geometry s="217.85751732" x="1133.89509157" y="151.38302825" hdg="2.95890000" length="22.74386512">
                <line/>
            </geometry>
            <geometry s="240.60138243" x="1111.52972844" y="155.51508974" hdg="2.95890000" length="13.88888886">
                <paramPoly3 aU="0.00000000" bU="10.41666664" cU="10.41666658" dU="-6.94444440" aV="-0.00000000" bV="-0.00000000" cV="-0.00197486" dV="0.00097590" pRange="normalized"/>
            </geometry>
            <geometry s="254.49027129" x="1097.87215913" y="158.03937858" hdg="2.95880189" length="7.95299536">
                <paramPoly3 aU="0.00000000" bU="5.96474652" cU="5.96474657" dU="-3.97649774" aV="-0.00000000" bV="0.00000000" cV="-0.00015793" dV="-0.00020581" pRange="normalized"/>
            </geometry>
            <geometry s="262.44326665" x="1090.05172495" y="159.48538841" hdg="2.95864542" length="13.88888868">
                <paramPoly3 aU="0.00000000" bU="10.41666651" cU="10.41666647" dU="-6.94444432" aV="-0.00000000" bV="0.00000000" cV="-0.00171394" dV="0.00083330" pRange="normalized"/>
            </geometry>
            <geometry s="276.33215533" x="1076.39477736" y="162.01303775" hdg="2.95855633" length="2.40249100">
                <paramPoly3 aU="0.00000000" bU="1.80186818" cU="1.80186924" dU="-1.20124654" aV="-0.00000000" bV="-0.00000000" cV="0.00095730" dV="-0.00131397" pRange="normalized"/>
            </geometry>
            <geometry s="278.73464634" x="1074.03248365" y="162.45068025" hdg="2.95743123" length="13.88888059">
                <paramPoly3 aU="0.00000000" bU="10.41665983" cU="10.41666824" dU="-6.94444849" aV="-0.00000000" bV="0.00000000" cV="0.00665386" dV="-0.00900026" pRange="normalized"/>
            </geometry>
            <geometry s="292.62352693" x="1060.37889252" y="164.99634925" hdg="2.95611669" length="14.89495070">
                <line/>
            </geometry>
            <geometry s="307.51847764" x="1045.73941125" y="167.74319195" hdg="2.95611669" length="7.11871357">
                <paramPoly3 aU="0.00000000" bU="5.33903370" cU="5.33899449" dU="-3.55933732" aV="-0.00000000" bV="-0.00000000" cV="0.03587445" dV="-0.01869411" pRange="normalized"/>
            </geometry>
            <geometry s="314.63719121" x="1038.73964768" y="169.03909506" hdg="2.95905104" length="9.83747033">
                <paramPoly3 aU="0.00000000" bU="7.37810270" cU="7.37810091" dU="-4.91873404" aV="-0.00000000" bV="0.00000000" cV="0.00901165" dV="-0.00530322" pRange="normalized"/>
            </geometry>
            <geometry s="324.47466153" x="1029.06494964" y="170.82123961" hdg="2.95933751" length="13.88888874">
                <paramPoly3 aU="0.00000000" bU="10.41666654" cU="10.41666671" dU="-6.94444455" aV="-0.00000000" bV="-0.00000000" cV="-0.00039271" dV="-0.00049754" pRange="normalized"/>
            </geometry>
            <geometry s="338.36355027" x="1015.40625766" y="173.33944595" hdg="2.95911882" length="50.35343138">
                <line/>
            </geometry>
            <geometry s="388.71698166" x="965.88880434" y="182.47672505" hdg="2.95911882" length="13.88888861">
                <paramPoly3 aU="0.00000000" bU="10.41666644" cU="10.41666585" dU="-6.94444401" aV="-0.00000000" bV="0.00000000" cV="0.00610470" dV="-0.00320769" pRange="normalized"/>
            </geometry>
            <geometry s="402.60587027" x="952.22997655" y="184.99419393" hdg="2.95936711" length="3.26510105">
                <paramPoly3 aU="0.00000000" bU="2.44882578" cU="2.44882564" dU="-1.63255043" aV="-0.00000000" bV="0.00000000" cV="0.00158663" dV="-0.00103521" pRange="normalized"/>
            </geometry>
            <geometry s="405.87097132" x="949.01883650" y="185.58534906" hdg="2.95939472" length="13.88888870">
                <paramPoly3 aU="0.00000000" bU="10.41666651" cU="10.41666671" dU="-6.94444455" aV="-0.00000000" bV="0.00000000" cV="0.00077966" dV="-0.00124092" pRange="normalized"/>
            </geometry>
            <geometry s="419.75986002" x="935.35992277" y="188.10235211" hdg="2.95918703" length="16.08134648">
                <line/>
            </geometry>
            <geometry s="435.84120650" x="919.54536311" y="191.01944098" hdg="2.95918703" length="13.85098484">
                <paramPoly3 aU="0.00000000" bU="10.38823252" cU="10.38799516" dU="-6.92535350" aV="-0.00000000" bV="0.00000000" cV="0.12168406" dV="-0.06839249" pRange="normalized"/>
            </geometry>
            <geometry s="449.69219133" x="905.91460574" y="193.47952405" hdg="2.96286338" length="9.56661820">
                <paramPoly3 aU="0.00000000" bU="7.17496362" cU="7.17496342" dU="-4.78330917" aV="-0.00000000" bV="-0.00000000" cV="-0.00399177" dV="0.00162104" pRange="normalized"/>
            </geometry>
            <geometry s="459.25880954" x="896.50080179" y="195.18260304" hdg="2.96242847" length="9.39270833">
                <paramPoly3 aU="0.00000000" bU="7.04445792" cU="7.04534321" dU="-4.69719074" aV="-0.00000000" bV="0.00000000" cV="-0.11707985" dV="0.11529001" pRange="normalized"/>
            </geometry>
            <geometry s="468.65151787" x="887.25885802" y="196.85819500" hdg="2.97828704" length="48.54121085">
                <line/>
            </geometry>
            <geometry s="517.19272872" x="839.36347602" y="204.75006009" hdg="2.97828704" length="13.88883749">
                <paramPoly3 aU="0.00000000" bU="10.41662318" cU="10.41653580" dU="-6.94438606" aV="-0.00000000" bV="0.00000000" cV="-0.07793047" dV="0.03779620" pRange="normalized"/>
            </geometry>
            <geometry s="531.08156621" x="825.66601487" y="207.04770711" hdg="2.97420967" length="9.69194753">
                <paramPoly3 aU="0.00000000" bU="7.26895976" cU="7.26892973" dU="-4.84595719" aV="-0.00000000" bV="0.00000000" cV="-0.03622787" dV="0.01973225" pRange="normalized"/>
            </geometry>
            <geometry s="540.77351375" x="816.11228383" y="208.67867220" hdg="2.97238561" length="5.44473564">
                <paramPoly3 aU="0.00000000" bU="4.08355167" cU="4.08355162" dU="-2.72236785" aV="-0.00000000" bV="0.00000000" cV="-0.00518955" dV="0.00400650" pRange="normalized"/>
            </geometry>
            <geometry s="546.21824939" x="810.74550601" y="209.59673600" hdg="2.97278732" length="4.37425432">
                <paramPoly3 aU="0.00000000" bU="3.28069045" cU="3.28068742" dU="-2.18712524" aV="-0.00000000" bV="-0.00000000" cV="0.01250150" dV="-0.00913123" pRange="normalized"/>
            </geometry>
            <geometry s="550.59250371" x="806.43286199" y="210.32830900" hdg="2.97205860" length="19.89873948">
                <line/>
            </geometry>
            <geometry s="570.49124319" x="786.81940099" y="213.68568600" hdg="2.97205860" length="6.42344250">
                <paramPoly3 aU="0.00000000" bU="4.81758186" cU="4.81758125" dU="-3.21172084" aV="-0.00000000" bV="-0.00000000" cV="-0.00451515" dV="0.00286457" pRange="normalized"/>
            </geometry>
            <geometry s="576.91468569" x="780.48832696" y="214.77109601" hdg="2.97196798" length="7.07699267">
                <paramPoly3 aU="0.00000000" bU="5.30774341" cU="5.30775523" dU="-3.53850750" aV="-0.00000000" bV="-0.00000000" cV="0.01451872" dV="-0.01345026" pRange="normalized"/>
            </geometry>
            <geometry s="583.99167836" x="773.51272305" y="215.96472691" hdg="2.96983650" length="13.88881518">
                <paramPoly3 aU="0.00000000" bU="10.41660484" cU="10.41668727" dU="-6.94449505" aV="-0.00000000" bV="0.00000000" cV="-0.00045408" dV="-0.01569883" pRange="normalized"/>
            </geometry>
            <geometry s="597.88049354" x="759.83104460" y="218.35441715" hdg="2.96522800" length="16.60193294">
                <line/>
            </geometry>
            <geometry s="614.48242647" x="743.48664042" y="221.26725585" hdg="2.96522800" length="13.88888884">
                <paramPoly3 aU="0.00000000" bU="10.41666662" cU="10.41666662" dU="-6.94444447" aV="-0.00000000" bV="-0.00000000" cV="0.00194677" dV="-0.00064892" pRange="normalized"/>
            </geometry>
            <geometry s="628.37131531" x="729.81296803" y="223.70280841" hdg="2.96541489" length="17.48153626">
                <line/>
            </geometry>
            <geometry s="645.85285158" x="712.60203199" y="226.76675859" hdg="2.96541489" length="13.88886769">
                <paramPoly3 aU="0.00000000" bU="10.41664659" cU="10.41664659" dU="-6.94445783" aV="-0.00000000" bV="0.00000000" cV="0.04089836" dV="-0.01363284" pRange="normalized"/>
            </geometry>
            <geometry s="659.74171927" x="698.92340594" y="229.17418056" hdg="2.96934114" length="20.56633468">
                <line/>
            </geometry>
            <geometry s="680.30805395" x="678.66142519" y="232.69927042" hdg="2.96934114" length="13.88852868">
                <paramPoly3 aU="0.00000000" bU="10.41636271" cU="10.41573285" dU="-6.94401721" aV="-0.00000000" bV="-0.00000000" cV="-0.20781265" dV="0.10171483" pRange="normalized"/>
            </geometry>
            <geometry s="694.19658264" x="664.99705688" y="235.18422833" hdg="2.95873447" length="8.82099105">
                <paramPoly3 aU="0.00000000" bU="6.61573779" cU="6.61547572" dU="-4.41032607" aV="-0.00000000" bV="0.00000000" cV="-0.10482252" dV="0.06361092" pRange="normalized"/>
            </geometry>
            <geometry s="703.01757368" x="656.33072544" y="236.82875046" hdg="2.95589090" length="13.88883372">
                <paramPoly3 aU="0.00000000" bU="10.41662011" cU="10.41668176" dU="-6.94448442" aV="-0.00000000" bV="-0.00000000" cV="0.00514691" dV="0.01098174" pRange="normalized"/>
            </geometry>
            <geometry s="716.90640740" x="642.67772155" y="239.37727852" hdg="2.96004188" length="1.73185902">
                <line/>
            </geometry>
        </planView>
        <elevationProfile>
            <elevation s="0" a="0.00" b="0" c="0" d="0"/>
        </elevationProfile>
        <lateralProfile/>
        <lanes>
            <laneSection s="0">
                <center>
                    <lane id="0" type="none" level="true">
                        <link/>
                        <roadMark sOffset="0" type="solid" weight="standard" color="standard" width="0.13"/>
                    </lane>
                </center>
                <right>
                    <lane id="-1" type="driving" level="true">
                        <link/>
                        <width sOffset="0" a="3.20" b="0" c="0" d="0"/>
                        <roadMark sOffset="0" type="solid" weight="standard" color="standard" width="0.13"/>
                        <speed sOffset="0" max="13.89"/>
                    </lane>
                 </right>
            </laneSection>
        </lanes>
        <objects/>
        <signals/>
    </road>
    <road name="Zeppelinstraße" length="19.37428040" id="229" junction="-1">