<?xml version="1.0" encoding="UTF-8"?>

<!-- generated on 2024-05-25 18:31:28 by Eclipse SUMO sumo Version 1.17.0
-->

<configuration xmlns:xsi="http://www.w3.org/2001/XMLSchema-instance" xsi:noNamespaceSchemaLocation="http://sumo.dlr.de/xsd/sumoConfiguration.xsd">

    <input>
        <net-file value="sumo_map.net.xml"/>
        <route-files value="sumo_map.rou.xml"/>
        <additional-files value="sumo_map.add.xml"/>
    </input>

</configuration>
