<additional>
    <edgeData id="test" file="dump.xml" period="10" />
</additional>